buspy/test/gld_crash_test_bus/R1-12.47-2_1/model.glm
clock {
	timezone PST+8PDT;
	starttime '2020-06-01 00:00:00';
	stoptime '2020-06-01 01:00:00';
};

#define stylesheet=http://gridlab-d.svn.sourceforge.net/viewvc/gridlab-d/trunk/core/gridlabd-2_0

#set minimum_timestep=4

#set profiler=1

#set relax_naming_rules=1

module tape {
};

module climate {
};

module residential {
	implicit_enduses NONE;
};

module powerflow {
	solver_method NR;
	NR_iteration_limit 50;
};

class player{
	double value;
};

object csv_reader {
	name CsvReader;
	filename "../../../../../test_scenario/distribution/resources/SCADA_weather_NC_gld_shifted.csv";
};

object climate {
	reader CsvReader;
	name SCADA_weather_NC_gld_shifted;
	tmyfile "../../../../../test_scenario/distribution/resources/SCADA_weather_NC_gld_shifted.csv";
};

object transformer_configuration {
	groupid Distribution_Trans;
	name trans_config_to_feeder;
	primary_voltage 14400;
	install_type PADMOUNT;
	impedance 0.00033+0.0022j;
	secondary_voltage 7200;
	connect_type WYE_WYE;
	power_rating 16.1 MVA;
};

object meter {
	measured_power 0;
	phases ABCN;
	measured_current_B 0;
	nominal_voltage 14400;
	name network_node;
	measured_current_A 0;
	measured_current_C 0;
	bustype SWING;
};

object player {
	property voltage_A;
	file "../../../../../test_scenario/distribution/resources/VA.player";
	loop 10;
	parent network_node;
};

object player {
	property voltage_B;
	file "../../../../../test_scenario/distribution/resources/VB.player";
	loop 10;
	parent network_node;
};

object player {
	property voltage_C;
	file "../../../../../test_scenario/distribution/resources/VC.player";
	loop 10;
	parent network_node;
};

object transformer {
	phases ABCN;
	from network_node;
	name substation_transformer;
	to R1-12-47-2_node_338;
	configuration trans_config_to_feeder;
	groupid Distribution_Trans;
};

#set profiler=1 module tape;
module powerflow {
	solver_method NR;
	default_maximum_voltage_error 1e-6;
};

object regulator:2078 {
	phases ABCN;
	from R1-12-47-2_node_338;
	name R1-12-47-2_reg_1;
	to R1-12-47-2_meter_14;
	configuration feeder_reg_cfg;
};

object regulator_configuration:2079 {
	Control OUTPUT_VOLTAGE;
	raise_taps 16;
	name feeder_reg_cfg;
	band_center 7500;
	tap_pos_A 0;
	tap_pos_B 0;
	connect_type WYE_WYE;
	time_delay 30;
	regulation 0.10;
	band_width 120;
	tap_pos_C 0;
	lower_taps 16;
};

object capacitor:2076 {
	control VOLT;
	phases ABCN;
	name R1-12-47-2_cap_1;
	parent R1-12-47-2_node_54;
	capacitor_B 0.15 MVAr;
	capacitor_C 0.15 MVAr;
	phases_connected ABC;
	capacitor_A 0.15 MVAr;
	time_delay 30.0;
	nominal_voltage 7200;
	cap_nominal_voltage 7200;
	voltage_set_low 7100;
	switchC CLOSED;
	control_level INDIVIDUAL;
	switchA CLOSED;
	switchB CLOSED;
	pt_phase A;
	dwell_time 30.0;
	voltage_set_high 7300;
};

object fuse:1988 {
	status CLOSED;
	phases ABCN;
	from R1-12-47-2_node_4;
	name R1-12-47-2_fuse_1;
	current_limit 50000;
	to R1-12-47-2_node_5;
};

object fuse:1989 {
	status CLOSED;
	phases ABCN;
	from R1-12-47-2_node_5;
	name R1-12-47-2_fuse_2;
	current_limit 50000;
	to R1-12-47-2_node_6;
};

object fuse:1990 {
	status CLOSED;
	phases AN;
	from R1-12-47-2_node_7;
	name R1-12-47-2_fuse_3;
	current_limit 50000;
	to R1-12-47-2_node_8;
};

object fuse:1991 {
	status CLOSED;
	phases AN;
	from R1-12-47-2_node_10;
	name R1-12-47-2_fuse_4;
	current_limit 50000;
	to R1-12-47-2_node_11;
};

object fuse:1992 {
	status CLOSED;
	phases AN;
	from R1-12-47-2_node_12;
	name R1-12-47-2_fuse_5;
	current_limit 50000;
	to R1-12-47-2_node_13;
};

object fuse:1993 {
	status CLOSED;
	phases CN;
	from R1-12-47-2_node_18;
	name R1-12-47-2_fuse_6;
	current_limit 50000;
	to R1-12-47-2_node_19;
};

object fuse:1994 {
	status CLOSED;
	phases BN;
	from R1-12-47-2_node_21;
	name R1-12-47-2_fuse_7;
	current_limit 50000;
	to R1-12-47-2_node_22;
};

object fuse:1995 {
	status CLOSED;
	phases AN;
	from R1-12-47-2_node_24;
	name R1-12-47-2_fuse_8;
	current_limit 50000;
	to R1-12-47-2_node_25;
};

object fuse:1996 {
	status CLOSED;
	phases BCN;
	from R1-12-47-2_node_28;
	name R1-12-47-2_fuse_9;
	current_limit 50000;
	to R1-12-47-2_node_29;
};

object fuse:1997 {
	status CLOSED;
	phases BN;
	from R1-12-47-2_node_33;
	name R1-12-47-2_fuse_10;
	current_limit 50000;
	to R1-12-47-2_node_34;
};

object fuse:1998 {
	status CLOSED;
	phases CN;
	from R1-12-47-2_node_33;
	name R1-12-47-2_fuse_11;
	current_limit 50000;
	to R1-12-47-2_node_35;
};

object fuse:1999 {
	status CLOSED;
	phases CN;
	from R1-12-47-2_node_36;
	name R1-12-47-2_fuse_12;
	current_limit 50000;
	to R1-12-47-2_node_37;
};

object fuse:2000 {
	status CLOSED;
	phases CN;
	from R1-12-47-2_node_39;
	name R1-12-47-2_fuse_13;
	current_limit 50000;
	to R1-12-47-2_node_40;
};

object fuse:2001 {
	status CLOSED;
	phases CN;
	from R1-12-47-2_node_41;
	name R1-12-47-2_fuse_14;
	current_limit 50000;
	to R1-12-47-2_node_43;
};

object fuse:2002 {
	status CLOSED;
	phases CN;
	from R1-12-47-2_node_42;
	name R1-12-47-2_fuse_15;
	current_limit 50000;
	to R1-12-47-2_node_44;
};

object fuse:2003 {
	status CLOSED;
	phases CN;
	from R1-12-47-2_node_45;
	name R1-12-47-2_fuse_16;
	current_limit 50000;
	to R1-12-47-2_node_46;
};

object fuse:2004 {
	status CLOSED;
	phases CN;
	from R1-12-47-2_node_49;
	name R1-12-47-2_fuse_17;
	current_limit 50000;
	to R1-12-47-2_node_50;
};

object fuse:2005 {
	status CLOSED;
	phases CN;
	from R1-12-47-2_node_51;
	name R1-12-47-2_fuse_18;
	current_limit 50000;
	to R1-12-47-2_node_52;
};

object fuse:2006 {
	status CLOSED;
	phases CN;
	from R1-12-47-2_node_51;
	name R1-12-47-2_fuse_19;
	current_limit 50000;
	to R1-12-47-2_node_53;
};

object fuse:2007 {
	status CLOSED;
	phases BN;
	from R1-12-47-2_node_57;
	name R1-12-47-2_fuse_20;
	current_limit 50000;
	to R1-12-47-2_node_58;
};

object fuse:2008 {
	status CLOSED;
	phases BN;
	from R1-12-47-2_node_61;
	name R1-12-47-2_fuse_21;
	current_limit 50000;
	to R1-12-47-2_node_62;
};

object fuse:2009 {
	status CLOSED;
	phases BN;
	from R1-12-47-2_node_67;
	name R1-12-47-2_fuse_22;
	current_limit 50000;
	to R1-12-47-2_node_68;
};

object fuse:2010 {
	status CLOSED;
	phases BN;
	from R1-12-47-2_node_73;
	name R1-12-47-2_fuse_23;
	current_limit 50000;
	to R1-12-47-2_node_74;
};

object fuse:2011 {
	status CLOSED;
	phases BN;
	from R1-12-47-2_node_75;
	name R1-12-47-2_fuse_24;
	current_limit 50000;
	to R1-12-47-2_node_76;
};

object fuse:2012 {
	status CLOSED;
	phases BN;
	from R1-12-47-2_node_78;
	name R1-12-47-2_fuse_25;
	current_limit 50000;
	to R1-12-47-2_node_79;
};

object fuse:2013 {
	status CLOSED;
	phases BN;
	from R1-12-47-2_node_81;
	name R1-12-47-2_fuse_26;
	current_limit 50000;
	to R1-12-47-2_node_82;
};

object fuse:2014 {
	status CLOSED;
	phases BN;
	from R1-12-47-2_node_81;
	name R1-12-47-2_fuse_27;
	current_limit 50000;
	to R1-12-47-2_node_83;
};

object fuse:2015 {
	status CLOSED;
	phases BN;
	from R1-12-47-2_node_84;
	name R1-12-47-2_fuse_28;
	current_limit 50000;
	to R1-12-47-2_node_85;
};

object fuse:2016 {
	status CLOSED;
	phases BN;
	from R1-12-47-2_node_85;
	name R1-12-47-2_fuse_29;
	current_limit 50000;
	to R1-12-47-2_node_86;
};

object fuse:2017 {
	status CLOSED;
	phases BN;
	from R1-12-47-2_node_89;
	name R1-12-47-2_fuse_30;
	current_limit 50000;
	to R1-12-47-2_node_90;
};

object fuse:2018 {
	status CLOSED;
	phases BN;
	from R1-12-47-2_node_93;
	name R1-12-47-2_fuse_31;
	current_limit 50000;
	to R1-12-47-2_node_95;
};

object fuse:2019 {
	status CLOSED;
	phases BN;
	from R1-12-47-2_node_85;
	name R1-12-47-2_fuse_32;
	current_limit 50000;
	to R1-12-47-2_node_96;
};

object fuse:2020 {
	status CLOSED;
	phases BN;
	from R1-12-47-2_node_97;
	name R1-12-47-2_fuse_33;
	current_limit 50000;
	to R1-12-47-2_node_336;
};

object fuse:2021 {
	status CLOSED;
	phases BN;
	from R1-12-47-2_node_100;
	name R1-12-47-2_fuse_34;
	current_limit 50000;
	to R1-12-47-2_node_102;
};

object fuse:2022 {
	status CLOSED;
	phases BN;
	from R1-12-47-2_node_101;
	name R1-12-47-2_fuse_35;
	current_limit 50000;
	to R1-12-47-2_node_103;
};

object fuse:2023 {
	status CLOSED;
	phases BN;
	from R1-12-47-2_node_99;
	name R1-12-47-2_fuse_36;
	current_limit 50000;
	to R1-12-47-2_node_105;
};

object fuse:2024 {
	status CLOSED;
	phases BN;
	from R1-12-47-2_node_336;
	name R1-12-47-2_fuse_37;
	current_limit 50000;
	to R1-12-47-2_node_337;
};

object fuse:2025 {
	status CLOSED;
	phases BN;
	from R1-12-47-2_node_107;
	name R1-12-47-2_fuse_38;
	current_limit 50000;
	to R1-12-47-2_node_108;
};

object fuse:2026 {
	status CLOSED;
	phases BN;
	from R1-12-47-2_node_109;
	name R1-12-47-2_fuse_39;
	current_limit 50000;
	to R1-12-47-2_node_110;
};

object fuse:2027 {
	status CLOSED;
	phases ABCN;
	from R1-12-47-2_node_57;
	name R1-12-47-2_fuse_40;
	current_limit 50000;
	to R1-12-47-2_node_111;
};

object fuse:2028 {
	status CLOSED;
	phases AN;
	from R1-12-47-2_node_112;
	name R1-12-47-2_fuse_41;
	current_limit 50000;
	to R1-12-47-2_node_113;
};

object fuse:2029 {
	status CLOSED;
	phases AN;
	from R1-12-47-2_node_114;
	name R1-12-47-2_fuse_42;
	current_limit 50000;
	to R1-12-47-2_node_115;
};

object fuse:2030 {
	status CLOSED;
	phases BN;
	from R1-12-47-2_node_116;
	name R1-12-47-2_fuse_43;
	current_limit 50000;
	to R1-12-47-2_node_323;
};

object fuse:2031 {
	status CLOSED;
	phases ABN;
	from R1-12-47-2_node_118;
	name R1-12-47-2_fuse_44;
	current_limit 50000;
	to R1-12-47-2_node_119;
};

object fuse:2032 {
	status CLOSED;
	phases BN;
	from R1-12-47-2_node_122;
	name R1-12-47-2_fuse_45;
	current_limit 50000;
	to R1-12-47-2_node_123;
};

object fuse:2033 {
	status CLOSED;
	phases AN;
	from R1-12-47-2_node_129;
	name R1-12-47-2_fuse_46;
	current_limit 50000;
	to R1-12-47-2_node_128;
};

object fuse:2034 {
	status CLOSED;
	phases AN;
	from R1-12-47-2_node_133;
	name R1-12-47-2_fuse_47;
	current_limit 50000;
	to R1-12-47-2_node_135;
};

object fuse:2035 {
	status CLOSED;
	phases AN;
	from R1-12-47-2_node_139;
	name R1-12-47-2_fuse_48;
	current_limit 50000;
	to R1-12-47-2_node_140;
};

object fuse:2036 {
	status CLOSED;
	phases AN;
	from R1-12-47-2_node_126;
	name R1-12-47-2_fuse_49;
	current_limit 50000;
	to R1-12-47-2_node_141;
};

object fuse:2037 {
	status CLOSED;
	phases AN;
	from R1-12-47-2_node_141;
	name R1-12-47-2_fuse_50;
	current_limit 50000;
	to R1-12-47-2_node_142;
};

object fuse:2038 {
	status CLOSED;
	phases AN;
	from R1-12-47-2_node_144;
	name R1-12-47-2_fuse_51;
	current_limit 50000;
	to R1-12-47-2_node_145;
};

object fuse:2039 {
	status CLOSED;
	phases AN;
	from R1-12-47-2_node_148;
	name R1-12-47-2_fuse_52;
	current_limit 50000;
	to R1-12-47-2_node_308;
};

object fuse:2040 {
	status CLOSED;
	phases AN;
	from R1-12-47-2_node_148;
	name R1-12-47-2_fuse_53;
	current_limit 50000;
	to R1-12-47-2_node_150;
};

object fuse:2041 {
	status CLOSED;
	phases CN;
	from R1-12-47-2_node_118;
	name R1-12-47-2_fuse_54;
	current_limit 50000;
	to R1-12-47-2_node_164;
};

object fuse:2042 {
	status CLOSED;
	phases CN;
	from R1-12-47-2_node_164;
	name R1-12-47-2_fuse_55;
	current_limit 50000;
	to R1-12-47-2_node_165;
};

object fuse:2043 {
	status CLOSED;
	phases CN;
	from R1-12-47-2_node_166;
	name R1-12-47-2_fuse_56;
	current_limit 50000;
	to R1-12-47-2_node_168;
};

object fuse:2044 {
	status CLOSED;
	phases BN;
	from R1-12-47-2_node_184;
	name R1-12-47-2_fuse_57;
	current_limit 50000;
	to R1-12-47-2_node_334;
};

object fuse:2045 {
	status CLOSED;
	phases CN;
	from R1-12-47-2_node_185;
	name R1-12-47-2_fuse_58;
	current_limit 50000;
	to R1-12-47-2_node_186;
};

object fuse:2046 {
	status CLOSED;
	phases CN;
	from R1-12-47-2_node_187;
	name R1-12-47-2_fuse_59;
	current_limit 50000;
	to R1-12-47-2_node_188;
};

object fuse:2047 {
	status CLOSED;
	phases CN;
	from R1-12-47-2_node_189;
	name R1-12-47-2_fuse_60;
	current_limit 50000;
	to R1-12-47-2_node_190;
};

object fuse:2048 {
	status CLOSED;
	phases BN;
	from R1-12-47-2_node_208;
	name R1-12-47-2_fuse_61;
	current_limit 50000;
	to R1-12-47-2_node_209;
};

object fuse:2049 {
	status CLOSED;
	phases CN;
	from R1-12-47-2_node_210;
	name R1-12-47-2_fuse_62;
	current_limit 50000;
	to R1-12-47-2_node_211;
};

object fuse:2050 {
	status CLOSED;
	phases BCN;
	from R1-12-47-2_node_215;
	name R1-12-47-2_fuse_63;
	current_limit 50000;
	to R1-12-47-2_node_216;
};

object fuse:2051 {
	status CLOSED;
	phases CN;
	from R1-12-47-2_node_217;
	name R1-12-47-2_fuse_64;
	current_limit 50000;
	to R1-12-47-2_node_335;
};

object fuse:2052 {
	status CLOSED;
	phases BCN;
	from R1-12-47-2_node_217;
	name R1-12-47-2_fuse_65;
	current_limit 50000;
	to R1-12-47-2_node_320;
};

object fuse:2053 {
	status CLOSED;
	phases BN;
	from R1-12-47-2_node_222;
	name R1-12-47-2_fuse_66;
	current_limit 50000;
	to R1-12-47-2_node_223;
};

object fuse:2054 {
	status CLOSED;
	phases BN;
	from R1-12-47-2_node_232;
	name R1-12-47-2_fuse_67;
	current_limit 50000;
	to R1-12-47-2_node_233;
};

object fuse:2055 {
	status CLOSED;
	phases BN;
	from R1-12-47-2_node_235;
	name R1-12-47-2_fuse_68;
	current_limit 50000;
	to R1-12-47-2_node_236;
};

object fuse:2056 {
	status CLOSED;
	phases CN;
	from R1-12-47-2_node_238;
	name R1-12-47-2_fuse_69;
	current_limit 50000;
	to R1-12-47-2_node_239;
};

object fuse:2057 {
	status CLOSED;
	phases CN;
	from R1-12-47-2_node_238;
	name R1-12-47-2_fuse_70;
	current_limit 50000;
	to R1-12-47-2_node_240;
};

object fuse:2058 {
	status CLOSED;
	phases CN;
	from R1-12-47-2_node_242;
	name R1-12-47-2_fuse_71;
	current_limit 50000;
	to R1-12-47-2_node_243;
};

object fuse:2059 {
	status CLOSED;
	phases CN;
	from R1-12-47-2_node_251;
	name R1-12-47-2_fuse_72;
	current_limit 50000;
	to R1-12-47-2_node_252;
};

object fuse:2060 {
	status CLOSED;
	phases BN;
	from R1-12-47-2_node_254;
	name R1-12-47-2_fuse_73;
	current_limit 50000;
	to R1-12-47-2_node_255;
};

object fuse:2061 {
	status CLOSED;
	phases BN;
	from R1-12-47-2_node_259;
	name R1-12-47-2_fuse_74;
	current_limit 50000;
	to R1-12-47-2_node_310;
};

object fuse:2062 {
	status CLOSED;
	phases CN;
	from R1-12-47-2_node_265;
	name R1-12-47-2_fuse_75;
	current_limit 50000;
	to R1-12-47-2_node_266;
};

object fuse:2063 {
	status CLOSED;
	phases CN;
	from R1-12-47-2_node_267;
	name R1-12-47-2_fuse_76;
	current_limit 50000;
	to R1-12-47-2_node_268;
};

object fuse:2064 {
	status CLOSED;
	phases BN;
	from R1-12-47-2_node_272;
	name R1-12-47-2_fuse_77;
	current_limit 50000;
	to R1-12-47-2_node_273;
};

object fuse:2065 {
	status CLOSED;
	phases BN;
	from R1-12-47-2_node_273;
	name R1-12-47-2_fuse_78;
	current_limit 50000;
	to R1-12-47-2_node_275;
};

object fuse:2066 {
	status CLOSED;
	phases BN;
	from R1-12-47-2_node_275;
	name R1-12-47-2_fuse_79;
	current_limit 50000;
	to R1-12-47-2_node_276;
};

object fuse:2067 {
	status CLOSED;
	phases BN;
	from R1-12-47-2_node_117;
	name R1-12-47-2_fuse_80;
	current_limit 50000;
	to R1-12-47-2_node_307;
};

object fuse:2068 {
	status CLOSED;
	phases BN;
	from R1-12-47-2_node_315;
	name R1-12-47-2_fuse_81;
	current_limit 50000;
	to R1-12-47-2_node_316;
};

object fuse:2069 {
	status CLOSED;
	phases BN;
	from R1-12-47-2_node_106;
	name R1-12-47-2_fuse_82;
	current_limit 50000;
	to R1-12-47-2_node_318;
};

object fuse:2070 {
	status CLOSED;
	phases BN;
	from R1-12-47-2_node_320;
	name R1-12-47-2_fuse_83;
	current_limit 50000;
	to R1-12-47-2_node_321;
};

object fuse:2071 {
	status CLOSED;
	phases AN;
	from R1-12-47-2_node_329;
	name R1-12-47-2_fuse_84;
	current_limit 50000;
	to R1-12-47-2_node_331;
};

object line_configuration:21 {
	spacing line_spacing:10;
	conductor_N underground_line_conductor:2;
	conductor_A underground_line_conductor:2;
	conductor_C underground_line_conductor:2;
	conductor_B underground_line_conductor:2;
};

object line_configuration:22 {
	spacing line_spacing:11;
	conductor_N overhead_line_conductor:3;
	conductor_A overhead_line_conductor:3;
	conductor_C overhead_line_conductor:3;
	conductor_B overhead_line_conductor:3;
};

object line_configuration:23 {
	spacing line_spacing:11;
	conductor_N overhead_line_conductor:4;
	conductor_A overhead_line_conductor:4;
	conductor_C overhead_line_conductor:4;
	conductor_B overhead_line_conductor:4;
};

object line_configuration:24 {
	spacing line_spacing:10;
	conductor_N underground_line_conductor:5;
	conductor_A underground_line_conductor:5;
	conductor_C underground_line_conductor:5;
	conductor_B underground_line_conductor:5;
};

object line_configuration:25 {
	conductor_A overhead_line_conductor:4;
	conductor_N overhead_line_conductor:4;
	spacing line_spacing:12;
};

object line_configuration:26 {
	conductor_A underground_line_conductor:5;
	conductor_N underground_line_conductor:5;
	spacing line_spacing:13;
};

object line_configuration:27 {
	spacing line_spacing:11;
	conductor_N overhead_line_conductor:3;
	conductor_A overhead_line_conductor:3;
	conductor_C overhead_line_conductor:3;
	conductor_B overhead_line_conductor:3;
};

object line_configuration:28 {
	conductor_N overhead_line_conductor:4;
	spacing line_spacing:14;
	conductor_C overhead_line_conductor:4;
};

object line_configuration:29 {
	conductor_N overhead_line_conductor:6;
	spacing line_spacing:14;
	conductor_C overhead_line_conductor:6;
};

object line_configuration:30 {
	conductor_N overhead_line_conductor:6;
	spacing line_spacing:15;
	conductor_B overhead_line_conductor:6;
};

object line_configuration:31 {
	conductor_N overhead_line_conductor:4;
	spacing line_spacing:15;
	conductor_B overhead_line_conductor:4;
};

object line_configuration:32 {
	conductor_A overhead_line_conductor:7;
	conductor_N overhead_line_conductor:7;
	spacing line_spacing:12;
};

object line_configuration:33 {
	conductor_N overhead_line_conductor:6;
	spacing line_spacing:16;
	conductor_C overhead_line_conductor:6;
	conductor_B overhead_line_conductor:6;
};

object line_configuration:34 {
	conductor_N overhead_line_conductor:4;
	spacing line_spacing:14;
	conductor_C overhead_line_conductor:4;
};

object line_configuration:35 {
	conductor_N overhead_line_conductor:4;
	spacing line_spacing:16;
	conductor_C overhead_line_conductor:4;
	conductor_B overhead_line_conductor:4;
};

object line_configuration:36 {
	conductor_N underground_line_conductor:5;
	spacing line_spacing:17;
	conductor_B underground_line_conductor:5;
};

object line_configuration:37 {
	conductor_N underground_line_conductor:5;
	spacing line_spacing:18;
	conductor_C underground_line_conductor:5;
};

object line_configuration:38 {
	conductor_N overhead_line_conductor:8;
	spacing line_spacing:14;
	conductor_C overhead_line_conductor:8;
};

object line_configuration:39 {
	spacing line_spacing:11;
	conductor_N overhead_line_conductor:3;
	conductor_A overhead_line_conductor:3;
	conductor_C overhead_line_conductor:3;
	conductor_B overhead_line_conductor:3;
};

object line_configuration:40 {
	spacing line_spacing:11;
	conductor_N overhead_line_conductor:9;
	conductor_A overhead_line_conductor:9;
	conductor_C overhead_line_conductor:9;
	conductor_B overhead_line_conductor:9;
};

object line_configuration:41 {
	conductor_N overhead_line_conductor:8;
	spacing line_spacing:15;
	conductor_B overhead_line_conductor:8;
};

object line_configuration:42 {
	conductor_N underground_line_conductor:5;
	spacing line_spacing:15;
	conductor_B underground_line_conductor:5;
};

object line_configuration:43 {
	spacing line_spacing:11;
	conductor_N overhead_line_conductor:9;
	conductor_A overhead_line_conductor:9;
	conductor_C overhead_line_conductor:9;
	conductor_B overhead_line_conductor:9;
};

object line_configuration:44 {
	conductor_A overhead_line_conductor:6;
	conductor_N overhead_line_conductor:6;
	spacing line_spacing:12;
};

object line_configuration:45 {
	conductor_A overhead_line_conductor:6;
	conductor_N overhead_line_conductor:6;
	spacing line_spacing:19;
	conductor_B overhead_line_conductor:6;
};

object line_configuration:46 {
	conductor_A overhead_line_conductor:7;
	conductor_N overhead_line_conductor:7;
	spacing line_spacing:19;
	conductor_B overhead_line_conductor:7;
};

object line_configuration:47 {
	conductor_A overhead_line_conductor:6;
	conductor_N overhead_line_conductor:6;
	spacing line_spacing:19;
	conductor_B overhead_line_conductor:6;
};

object line_configuration:48 {
	conductor_N underground_line_conductor:5;
	spacing line_spacing:20;
	conductor_C underground_line_conductor:5;
	conductor_B underground_line_conductor:5;
};

object line_configuration:49 {
	conductor_A underground_line_conductor:5;
	conductor_N underground_line_conductor:5;
	spacing line_spacing:12;
};

object line_spacing:10 {
	distance_BC 0.0 in;
	distance_CN 0.0 in;
	distance_AN 0.0 in;
	distance_AB 0.0 in;
	distance_BN 0.0 in;
	distance_AC 0.0 in;
};

object line_spacing:11 {
	distance_BC 57.6 in;
	distance_CN 84.0 in;
	distance_AN 84.0 in;
	distance_AB 57.6 in;
	distance_BN 84.0 in;
	distance_AC 57.6 in;
};

object line_spacing:12 {
	distance_AN 84.0 in;
};

object line_spacing:13 {
	distance_AN 0.0 in;
};

object line_spacing:14 {
	distance_CN 84.0 in;
};

object line_spacing:15 {
	distance_BN 84.0 in;
};

object line_spacing:16 {
	distance_CN 84.0 in;
	distance_BC 57.6 in;
	distance_BN 84.0 in;
};

object line_spacing:17 {
	distance_BN 0.0 in;
};

object line_spacing:18 {
	distance_CN 0.0 in;
};

object line_spacing:19 {
	distance_AN 84.0 in;
	distance_AB 57.6 in;
	distance_BN 84.0 in;
};

object line_spacing:20 {
	distance_CN 0.0 in;
	distance_BC 0.0 in;
	distance_BN 0.0 in;
};

object load:387 {
	phases ABCN;
	name R1-12-47-2_load_1;
	parent R1-12-47-2_meter_1;
	load_class C;
	voltage_B -3600-6235j;
	voltage_C -3600+6235j;
	voltage_A 7200+0.0j;
	constant_power_C 7585.7348+93.6417j;
	constant_power_B 0+0j;
	constant_power_A 0+0j;
	nominal_voltage 7200;
};

object load:388 {
	phases ABCN;
	name R1-12-47-2_load_2;
	parent R1-12-47-2_meter_2;
	load_class C;
	voltage_B -3600-6235j;
	voltage_C -3600+6235j;
	voltage_A 7200+0.0j;
	constant_power_C 82334+50j;
	constant_power_B 82333+50j;
	constant_power_A 82333+50j;
	nominal_voltage 7200;
};

object load:389 {
	phases ABCN;
	name R1-12-47-2_load_3;
	parent R1-12-47-2_meter_3;
	load_class C;
	voltage_B -3600-6235j;
	voltage_C -3600+6235j;
	voltage_A 7200+0.0j;
	constant_power_C 25285.7827+312.1391j;
	constant_power_B 11118.2659+338.5019j;
	constant_power_A 15564.4725+222.4254j;
	nominal_voltage 7200;
};

object load:390 {
	phases AN;
	name R1-12-47-2_load_4;
	parent R1-12-47-2_meter_4;
	load_class C;
	voltage_A 7200+0.0j;
	nominal_voltage 7200;
	constant_power_A 15564.4725+222.4254j;
};

object load:391 {
	phases AN;
	name R1-12-47-2_load_5;
	parent R1-12-47-2_meter_5;
	load_class C;
	voltage_A 7200+0.0j;
	nominal_voltage 7200;
	constant_power_A 38911.1812+556.0636j;
};

object load:392 {
	phases AN;
	name R1-12-47-2_load_6;
	parent R1-12-47-2_meter_6;
	load_class C;
	voltage_A 7200+0.0j;
	nominal_voltage 7200;
	constant_power_A 11673.3544+166.8191j;
};

object load:393 {
	phases AN;
	name R1-12-47-2_load_7;
	parent R1-12-47-2_meter_7;
	load_class C;
	voltage_A 7200+0.0j;
	nominal_voltage 7200;
	constant_power_A 15564.4725+222.4254j;
};

object load:394 {
	phases BN;
	name R1-12-47-2_load_8;
	parent R1-12-47-2_meter_8;
	load_class C;
	voltage_B -3600-6235j;
	nominal_voltage 7200;
	constant_power_B 3335.4798+101.5506j;
};

object load:395 {
	phases BN;
	name R1-12-47-2_load_9;
	parent R1-12-47-2_meter_9;
	load_class C;
	voltage_B -3600-6235j;
	nominal_voltage 7200;
	constant_power_B 11118.2659+338.5019j;
};

object load:396 {
	phases ABCN;
	name R1-12-47-2_load_10;
	parent R1-12-47-2_meter_10;
	load_class C;
	voltage_B -3600-6235j;
	voltage_C -3600+6235j;
	voltage_A 7200+0.0j;
	constant_power_C 0+0j;
	constant_power_B 3335.4798+101.5506j;
	constant_power_A 4669.3417+66.7276j;
	nominal_voltage 7200;
};

object load:397 {
	phases AN;
	name R1-12-47-2_load_11;
	parent R1-12-47-2_meter_11;
	load_class C;
	voltage_A 7200+0.0j;
	nominal_voltage 7200;
	constant_power_A 15564.4725+222.4254j;
};

object load:398 {
	phases AN;
	name R1-12-47-2_load_12;
	parent R1-12-47-2_meter_12;
	load_class C;
	voltage_A 7200+0.0j;
	nominal_voltage 7200;
	constant_power_A 4669.3417+66.7276j;
};

object load:399 {
	phases AN;
	name R1-12-47-2_load_13;
	parent R1-12-47-2_meter_13;
	load_class C;
	voltage_A 7200+0.0j;
	nominal_voltage 7200;
	constant_power_A 7782.2362+111.2127j;
};

object meter:1153 {
	phases ABCN;
	name R1-12-47-2_meter_1;
	voltage_B -3600-6235j;
	voltage_C -3600+6235j;
	voltage_A 7200+0.0j;
	nominal_voltage 7200;
};

object meter:1154 {
	phases ABCN;
	name R1-12-47-2_meter_2;
	voltage_B -3600-6235j;
	voltage_C -3600+6235j;
	voltage_A 7200+0.0j;
	nominal_voltage 7200;
};

object meter:1155 {
	phases ABCN;
	name R1-12-47-2_meter_3;
	voltage_B -3600-6235j;
	voltage_C -3600+6235j;
	voltage_A 7200+0.0j;
	nominal_voltage 7200;
};

object meter:1156 {
	phases AN;
	nominal_voltage 7200;
	name R1-12-47-2_meter_4;
	voltage_A 7200+0.0j;
};

object meter:1157 {
	phases AN;
	nominal_voltage 7200;
	name R1-12-47-2_meter_5;
	voltage_A 7200+0.0j;
};

object meter:1158 {
	phases AN;
	nominal_voltage 7200;
	name R1-12-47-2_meter_6;
	voltage_A 7200+0.0j;
};

object meter:1159 {
	phases AN;
	nominal_voltage 7200;
	name R1-12-47-2_meter_7;
	voltage_A 7200+0.0j;
};

object meter:1160 {
	voltage_B -3600-6235j;
	phases BN;
	nominal_voltage 7200;
	name R1-12-47-2_meter_8;
};

object meter:1161 {
	voltage_B -3600-6235j;
	phases BN;
	nominal_voltage 7200;
	name R1-12-47-2_meter_9;
};

object meter:1162 {
	phases ABCN;
	name R1-12-47-2_meter_10;
	voltage_B -3600-6235j;
	voltage_C -3600+6235j;
	voltage_A 7200+0.0j;
	nominal_voltage 7200;
};

object meter:1163 {
	phases AN;
	nominal_voltage 7200;
	name R1-12-47-2_meter_11;
	voltage_A 7200+0.0j;
};

object meter:1164 {
	phases AN;
	nominal_voltage 7200;
	name R1-12-47-2_meter_12;
	voltage_A 7200+0.0j;
};

object meter:1165 {
	phases AN;
	nominal_voltage 7200;
	name R1-12-47-2_meter_13;
	voltage_A 7200+0.0j;
};

object meter:2077 {
	phases ABCN;
	name R1-12-47-2_meter_14;
	voltage_B -3600-6235j;
	voltage_C -3600+6235j;
	voltage_A 7200+0.0j;
	nominal_voltage 7200;
};

object node:50 {
	phases ABCN;
	name R1-12-47-2_node_1;
	voltage_B -3600-6235j;
	voltage_C -3600+6235j;
	voltage_A 7200+0.0j;
	nominal_voltage 7200;
};

object node:51 {
	phases ABCN;
	name R1-12-47-2_node_2;
	voltage_B -3600-6235j;
	voltage_C -3600+6235j;
	voltage_A 7200+0.0j;
	nominal_voltage 7200;
};

object node:52 {
	phases ABCN;
	name R1-12-47-2_node_3;
	voltage_B -3600-6235j;
	voltage_C -3600+6235j;
	voltage_A 7200+0.0j;
	nominal_voltage 7200;
};

object node:53 {
	phases ABCN;
	name R1-12-47-2_node_4;
	voltage_B -3600-6235j;
	voltage_C -3600+6235j;
	voltage_A 7200+0.0j;
	nominal_voltage 7200;
};

object node:54 {
	phases ABCN;
	name R1-12-47-2_node_5;
	voltage_B -3600-6235j;
	voltage_C -3600+6235j;
	voltage_A 7200+0.0j;
	nominal_voltage 7200;
};

object node:55 {
	phases ABCN;
	name R1-12-47-2_node_6;
	voltage_B -3600-6235j;
	voltage_C -3600+6235j;
	voltage_A 7200+0.0j;
	nominal_voltage 7200;
};

object node:56 {
	phases ABCN;
	name R1-12-47-2_node_7;
	voltage_B -3600-6235j;
	voltage_C -3600+6235j;
	voltage_A 7200+0.0j;
	nominal_voltage 7200;
};

object node:57 {
	phases AN;
	nominal_voltage 7200;
	name R1-12-47-2_node_8;
	voltage_A 7200+0.0j;
};

object node:58 {
	phases AN;
	nominal_voltage 7200;
	name R1-12-47-2_node_9;
	voltage_A 7200+0.0j;
};

object node:59 {
	phases AN;
	nominal_voltage 7200;
	name R1-12-47-2_node_10;
	voltage_A 7200+0.0j;
};

object node:60 {
	phases AN;
	nominal_voltage 7200;
	name R1-12-47-2_node_11;
	voltage_A 7200+0.0j;
};

object node:61 {
	phases AN;
	nominal_voltage 7200;
	name R1-12-47-2_node_12;
	voltage_A 7200+0.0j;
};

object node:62 {
	phases AN;
	nominal_voltage 7200;
	name R1-12-47-2_node_13;
	voltage_A 7200+0.0j;
};

object node:63 {
	phases AN;
	nominal_voltage 7200;
	name R1-12-47-2_node_14;
	voltage_A 7200+0.0j;
};

object node:64 {
	phases AN;
	nominal_voltage 7200;
	name R1-12-47-2_node_15;
	voltage_A 7200+0.0j;
};

object node:65 {
	phases AN;
	nominal_voltage 7200;
	name R1-12-47-2_node_16;
	voltage_A 7200+0.0j;
};

object node:66 {
	phases ABCN;
	name R1-12-47-2_node_17;
	voltage_B -3600-6235j;
	voltage_C -3600+6235j;
	voltage_A 7200+0.0j;
	nominal_voltage 7200;
};

object node:67 {
	phases ABCN;
	name R1-12-47-2_node_18;
	voltage_B -3600-6235j;
	voltage_C -3600+6235j;
	voltage_A 7200+0.0j;
	nominal_voltage 7200;
};

object node:68 {
	voltage_C -3600+6235j;
	phases CN;
	nominal_voltage 7200;
	name R1-12-47-2_node_19;
};

object node:69 {
	voltage_C -3600+6235j;
	phases CN;
	nominal_voltage 7200;
	name R1-12-47-2_node_20;
};

object node:70 {
	phases ABCN;
	name R1-12-47-2_node_21;
	voltage_B -3600-6235j;
	voltage_C -3600+6235j;
	voltage_A 7200+0.0j;
	nominal_voltage 7200;
};

object node:71 {
	voltage_B -3600-6235j;
	phases BN;
	nominal_voltage 7200;
	name R1-12-47-2_node_22;
};

object node:72 {
	voltage_B -3600-6235j;
	phases BN;
	nominal_voltage 7200;
	name R1-12-47-2_node_23;
};

object node:73 {
	phases ABCN;
	name R1-12-47-2_node_24;
	voltage_B -3600-6235j;
	voltage_C -3600+6235j;
	voltage_A 7200+0.0j;
	nominal_voltage 7200;
};

object node:74 {
	phases AN;
	nominal_voltage 7200;
	name R1-12-47-2_node_25;
	voltage_A 7200+0.0j;
};

object node:75 {
	phases AN;
	nominal_voltage 7200;
	name R1-12-47-2_node_26;
	voltage_A 7200+0.0j;
};

object node:76 {
	phases AN;
	nominal_voltage 7200;
	name R1-12-47-2_node_27;
	voltage_A 7200+0.0j;
};

object node:77 {
	phases ABCN;
	name R1-12-47-2_node_28;
	voltage_B -3600-6235j;
	voltage_C -3600+6235j;
	voltage_A 7200+0.0j;
	nominal_voltage 7200;
};

object node:78 {
	phases BCN;
	name R1-12-47-2_node_29;
	voltage_B -3600-6235j;
	voltage_C -3600+6235j;
	nominal_voltage 7200;
};

object node:79 {
	phases BCN;
	name R1-12-47-2_node_30;
	voltage_B -3600-6235j;
	voltage_C -3600+6235j;
	nominal_voltage 7200;
};

object node:80 {
	voltage_C -3600+6235j;
	phases CN;
	nominal_voltage 7200;
	name R1-12-47-2_node_31;
};

object node:81 {
	phases BCN;
	name R1-12-47-2_node_32;
	voltage_B -3600-6235j;
	voltage_C -3600+6235j;
	nominal_voltage 7200;
};

object node:82 {
	phases BCN;
	name R1-12-47-2_node_33;
	voltage_B -3600-6235j;
	voltage_C -3600+6235j;
	nominal_voltage 7200;
};

object node:83 {
	voltage_B -3600-6235j;
	phases BN;
	nominal_voltage 7200;
	name R1-12-47-2_node_34;
};

object node:84 {
	voltage_C -3600+6235j;
	phases CN;
	nominal_voltage 7200;
	name R1-12-47-2_node_35;
};

object node:85 {
	voltage_C -3600+6235j;
	phases CN;
	nominal_voltage 7200;
	name R1-12-47-2_node_36;
};

object node:86 {
	voltage_C -3600+6235j;
	phases CN;
	nominal_voltage 7200;
	name R1-12-47-2_node_37;
};

object node:87 {
	voltage_C -3600+6235j;
	phases CN;
	nominal_voltage 7200;
	name R1-12-47-2_node_38;
};

object node:88 {
	voltage_C -3600+6235j;
	phases CN;
	nominal_voltage 7200;
	name R1-12-47-2_node_39;
};

object node:89 {
	voltage_C -3600+6235j;
	phases CN;
	nominal_voltage 7200;
	name R1-12-47-2_node_40;
};

object node:90 {
	voltage_C -3600+6235j;
	phases CN;
	nominal_voltage 7200;
	name R1-12-47-2_node_41;
};

object node:91 {
	voltage_C -3600+6235j;
	phases CN;
	nominal_voltage 7200;
	name R1-12-47-2_node_42;
};

object node:92 {
	voltage_C -3600+6235j;
	phases CN;
	nominal_voltage 7200;
	name R1-12-47-2_node_43;
};

object node:93 {
	voltage_C -3600+6235j;
	phases CN;
	nominal_voltage 7200;
	name R1-12-47-2_node_44;
};

object node:94 {
	voltage_C -3600+6235j;
	phases CN;
	nominal_voltage 7200;
	name R1-12-47-2_node_45;
};

object node:95 {
	voltage_C -3600+6235j;
	phases CN;
	nominal_voltage 7200;
	name R1-12-47-2_node_46;
};

object node:96 {
	voltage_C -3600+6235j;
	phases CN;
	nominal_voltage 7200;
	name R1-12-47-2_node_47;
};

object node:97 {
	voltage_C -3600+6235j;
	phases CN;
	nominal_voltage 7200;
	name R1-12-47-2_node_48;
};

object node:98 {
	voltage_C -3600+6235j;
	phases CN;
	nominal_voltage 7200;
	name R1-12-47-2_node_49;
};

object node:99 {
	voltage_C -3600+6235j;
	phases CN;
	nominal_voltage 7200;
	name R1-12-47-2_node_50;
};

object node:100 {
	voltage_C -3600+6235j;
	phases CN;
	nominal_voltage 7200;
	name R1-12-47-2_node_51;
};

object node:101 {
	voltage_C -3600+6235j;
	phases CN;
	nominal_voltage 7200;
	name R1-12-47-2_node_52;
};

object node:102 {
	voltage_C -3600+6235j;
	phases CN;
	nominal_voltage 7200;
	name R1-12-47-2_node_53;
};

object node:103 {
	phases ABCN;
	name R1-12-47-2_node_54;
	voltage_B -3600-6235j;
	voltage_C -3600+6235j;
	voltage_A 7200+0.0j;
	nominal_voltage 7200;
};

object node:104 {
	phases ABCN;
	name R1-12-47-2_node_55;
	voltage_B -3600-6235j;
	voltage_C -3600+6235j;
	voltage_A 7200+0.0j;
	nominal_voltage 7200;
};

object node:105 {
	phases ABCN;
	name R1-12-47-2_node_56;
	voltage_B -3600-6235j;
	voltage_C -3600+6235j;
	voltage_A 7200+0.0j;
	nominal_voltage 7200;
};

object node:106 {
	phases ABCN;
	name R1-12-47-2_node_57;
	voltage_B -3600-6235j;
	voltage_C -3600+6235j;
	voltage_A 7200+0.0j;
	nominal_voltage 7200;
};

object node:107 {
	voltage_B -3600-6235j;
	phases BN;
	nominal_voltage 7200;
	name R1-12-47-2_node_58;
};

object node:108 {
	voltage_B -3600-6235j;
	phases BN;
	nominal_voltage 7200;
	name R1-12-47-2_node_59;
};

object node:109 {
	voltage_B -3600-6235j;
	phases BN;
	nominal_voltage 7200;
	name R1-12-47-2_node_60;
};

object node:110 {
	voltage_B -3600-6235j;
	phases BN;
	nominal_voltage 7200;
	name R1-12-47-2_node_61;
};

object node:111 {
	voltage_B -3600-6235j;
	phases BN;
	nominal_voltage 7200;
	name R1-12-47-2_node_62;
};

object node:112 {
	voltage_B -3600-6235j;
	phases BN;
	nominal_voltage 7200;
	name R1-12-47-2_node_63;
};

object node:113 {
	voltage_B -3600-6235j;
	phases BN;
	nominal_voltage 7200;
	name R1-12-47-2_node_64;
};

object node:114 {
	voltage_B -3600-6235j;
	phases BN;
	nominal_voltage 7200;
	name R1-12-47-2_node_65;
};

object node:115 {
	voltage_B -3600-6235j;
	phases BN;
	nominal_voltage 7200;
	name R1-12-47-2_node_66;
};

object node:116 {
	voltage_B -3600-6235j;
	phases BN;
	nominal_voltage 7200;
	name R1-12-47-2_node_67;
};

object node:117 {
	voltage_B -3600-6235j;
	phases BN;
	nominal_voltage 7200;
	name R1-12-47-2_node_68;
};

object node:118 {
	voltage_B -3600-6235j;
	phases BN;
	nominal_voltage 7200;
	name R1-12-47-2_node_69;
};

object node:119 {
	voltage_B -3600-6235j;
	phases BN;
	nominal_voltage 7200;
	name R1-12-47-2_node_70;
};

object node:120 {
	voltage_B -3600-6235j;
	phases BN;
	nominal_voltage 7200;
	name R1-12-47-2_node_71;
};

object node:121 {
	voltage_B -3600-6235j;
	phases BN;
	nominal_voltage 7200;
	name R1-12-47-2_node_72;
};

object node:122 {
	voltage_B -3600-6235j;
	phases BN;
	nominal_voltage 7200;
	name R1-12-47-2_node_73;
};

object node:123 {
	voltage_B -3600-6235j;
	phases BN;
	nominal_voltage 7200;
	name R1-12-47-2_node_74;
};

object node:124 {
	voltage_B -3600-6235j;
	phases BN;
	nominal_voltage 7200;
	name R1-12-47-2_node_75;
};

object node:125 {
	voltage_B -3600-6235j;
	phases BN;
	nominal_voltage 7200;
	name R1-12-47-2_node_76;
};

object node:126 {
	voltage_B -3600-6235j;
	phases BN;
	nominal_voltage 7200;
	name R1-12-47-2_node_77;
};

object node:127 {
	voltage_B -3600-6235j;
	phases BN;
	nominal_voltage 7200;
	name R1-12-47-2_node_78;
};

object node:128 {
	voltage_B -3600-6235j;
	phases BN;
	nominal_voltage 7200;
	name R1-12-47-2_node_79;
};

object node:129 {
	voltage_B -3600-6235j;
	phases BN;
	nominal_voltage 7200;
	name R1-12-47-2_node_80;
};

object node:130 {
	voltage_B -3600-6235j;
	phases BN;
	nominal_voltage 7200;
	name R1-12-47-2_node_81;
};

object node:131 {
	voltage_B -3600-6235j;
	phases BN;
	nominal_voltage 7200;
	name R1-12-47-2_node_82;
};

object node:132 {
	voltage_B -3600-6235j;
	phases BN;
	nominal_voltage 7200;
	name R1-12-47-2_node_83;
};

object node:133 {
	voltage_B -3600-6235j;
	phases BN;
	nominal_voltage 7200;
	name R1-12-47-2_node_84;
};

object node:134 {
	voltage_B -3600-6235j;
	phases BN;
	nominal_voltage 7200;
	name R1-12-47-2_node_85;
};

object node:135 {
	voltage_B -3600-6235j;
	phases BN;
	nominal_voltage 7200;
	name R1-12-47-2_node_86;
};

object node:136 {
	voltage_B -3600-6235j;
	phases BN;
	nominal_voltage 7200;
	name R1-12-47-2_node_87;
};

object node:137 {
	voltage_B -3600-6235j;
	phases BN;
	nominal_voltage 7200;
	name R1-12-47-2_node_88;
};

object node:138 {
	voltage_B -3600-6235j;
	phases BN;
	nominal_voltage 7200;
	name R1-12-47-2_node_89;
};

object node:139 {
	voltage_B -3600-6235j;
	phases BN;
	nominal_voltage 7200;
	name R1-12-47-2_node_90;
};

object node:140 {
	voltage_B -3600-6235j;
	phases BN;
	nominal_voltage 7200;
	name R1-12-47-2_node_91;
};

object node:141 {
	voltage_B -3600-6235j;
	phases BN;
	nominal_voltage 7200;
	name R1-12-47-2_node_92;
};

object node:142 {
	voltage_B -3600-6235j;
	phases BN;
	nominal_voltage 7200;
	name R1-12-47-2_node_93;
};

object node:143 {
	voltage_B -3600-6235j;
	phases BN;
	nominal_voltage 7200;
	name R1-12-47-2_node_94;
};

object node:144 {
	voltage_B -3600-6235j;
	phases BN;
	nominal_voltage 7200;
	name R1-12-47-2_node_95;
};

object node:145 {
	voltage_B -3600-6235j;
	phases BN;
	nominal_voltage 7200;
	name R1-12-47-2_node_96;
};

object node:146 {
	voltage_B -3600-6235j;
	phases BN;
	nominal_voltage 7200;
	name R1-12-47-2_node_97;
};

object node:147 {
	voltage_B -3600-6235j;
	phases BN;
	nominal_voltage 7200;
	name R1-12-47-2_node_98;
};

object node:148 {
	voltage_B -3600-6235j;
	phases BN;
	nominal_voltage 7200;
	name R1-12-47-2_node_99;
};

object node:149 {
	voltage_B -3600-6235j;
	phases BN;
	nominal_voltage 7200;
	name R1-12-47-2_node_100;
};

object node:150 {
	voltage_B -3600-6235j;
	phases BN;
	nominal_voltage 7200;
	name R1-12-47-2_node_101;
};

object node:151 {
	voltage_B -3600-6235j;
	phases BN;
	nominal_voltage 7200;
	name R1-12-47-2_node_102;
};

object node:152 {
	voltage_B -3600-6235j;
	phases BN;
	nominal_voltage 7200;
	name R1-12-47-2_node_103;
};

object node:153 {
	voltage_B -3600-6235j;
	phases BN;
	nominal_voltage 7200;
	name R1-12-47-2_node_104;
};

object node:154 {
	voltage_B -3600-6235j;
	phases BN;
	nominal_voltage 7200;
	name R1-12-47-2_node_105;
};

object node:155 {
	voltage_B -3600-6235j;
	phases BN;
	nominal_voltage 7200;
	name R1-12-47-2_node_106;
};

object node:156 {
	voltage_B -3600-6235j;
	phases BN;
	nominal_voltage 7200;
	name R1-12-47-2_node_107;
};

object node:157 {
	voltage_B -3600-6235j;
	phases BN;
	nominal_voltage 7200;
	name R1-12-47-2_node_108;
};

object node:158 {
	voltage_B -3600-6235j;
	phases BN;
	nominal_voltage 7200;
	name R1-12-47-2_node_109;
};

object node:159 {
	voltage_B -3600-6235j;
	phases BN;
	nominal_voltage 7200;
	name R1-12-47-2_node_110;
};

object node:160 {
	phases ABCN;
	name R1-12-47-2_node_111;
	voltage_B -3600-6235j;
	voltage_C -3600+6235j;
	voltage_A 7200+0.0j;
	nominal_voltage 7200;
};

object node:161 {
	phases AN;
	nominal_voltage 7200;
	name R1-12-47-2_node_112;
	voltage_A 7200+0.0j;
};

object node:162 {
	phases AN;
	nominal_voltage 7200;
	name R1-12-47-2_node_113;
	voltage_A 7200+0.0j;
};

object node:163 {
	phases ABCN;
	name R1-12-47-2_node_114;
	voltage_B -3600-6235j;
	voltage_C -3600+6235j;
	voltage_A 7200+0.0j;
	nominal_voltage 7200;
};

object node:164 {
	phases AN;
	nominal_voltage 7200;
	name R1-12-47-2_node_115;
	voltage_A 7200+0.0j;
};

object node:165 {
	phases ABCN;
	name R1-12-47-2_node_116;
	voltage_B -3600-6235j;
	voltage_C -3600+6235j;
	voltage_A 7200+0.0j;
	nominal_voltage 7200;
};

object node:166 {
	voltage_B -3600-6235j;
	phases BN;
	nominal_voltage 7200;
	name R1-12-47-2_node_117;
};

object node:167 {
	phases ABCN;
	name R1-12-47-2_node_118;
	voltage_B -3600-6235j;
	voltage_C -3600+6235j;
	voltage_A 7200+0.0j;
	nominal_voltage 7200;
};

object node:168 {
	phases ABN;
	name R1-12-47-2_node_119;
	voltage_B -3600-6235j;
	voltage_A 7200+0.0j;
	nominal_voltage 7200;
};

object node:169 {
	phases ABN;
	name R1-12-47-2_node_120;
	voltage_B -3600-6235j;
	voltage_A 7200+0.0j;
	nominal_voltage 7200;
};

object node:170 {
	phases ABN;
	name R1-12-47-2_node_121;
	voltage_B -3600-6235j;
	voltage_A 7200+0.0j;
	nominal_voltage 7200;
};

object node:171 {
	voltage_B -3600-6235j;
	phases BN;
	nominal_voltage 7200;
	name R1-12-47-2_node_122;
};

object node:172 {
	voltage_B -3600-6235j;
	phases BN;
	nominal_voltage 7200;
	name R1-12-47-2_node_123;
};

object node:173 {
	phases ABN;
	name R1-12-47-2_node_124;
	voltage_B -3600-6235j;
	voltage_A 7200+0.0j;
	nominal_voltage 7200;
};

object node:174 {
	phases ABN;
	name R1-12-47-2_node_125;
	voltage_B -3600-6235j;
	voltage_A 7200+0.0j;
	nominal_voltage 7200;
};

object node:175 {
	phases AN;
	nominal_voltage 7200;
	name R1-12-47-2_node_126;
	voltage_A 7200+0.0j;
};

object node:176 {
	phases AN;
	nominal_voltage 7200;
	name R1-12-47-2_node_127;
	voltage_A 7200+0.0j;
};

object node:177 {
	phases AN;
	nominal_voltage 7200;
	name R1-12-47-2_node_128;
	voltage_A 7200+0.0j;
};

object node:178 {
	phases AN;
	nominal_voltage 7200;
	name R1-12-47-2_node_129;
	voltage_A 7200+0.0j;
};

object node:179 {
	phases AN;
	nominal_voltage 7200;
	name R1-12-47-2_node_130;
	voltage_A 7200+0.0j;
};

object node:180 {
	phases AN;
	nominal_voltage 7200;
	name R1-12-47-2_node_131;
	voltage_A 7200+0.0j;
};

object node:181 {
	phases AN;
	nominal_voltage 7200;
	name R1-12-47-2_node_132;
	voltage_A 7200+0.0j;
};

object node:182 {
	phases AN;
	nominal_voltage 7200;
	name R1-12-47-2_node_133;
	voltage_A 7200+0.0j;
};

object node:183 {
	phases AN;
	nominal_voltage 7200;
	name R1-12-47-2_node_134;
	voltage_A 7200+0.0j;
};

object node:184 {
	phases AN;
	nominal_voltage 7200;
	name R1-12-47-2_node_135;
	voltage_A 7200+0.0j;
};

object node:185 {
	phases AN;
	nominal_voltage 7200;
	name R1-12-47-2_node_136;
	voltage_A 7200+0.0j;
};

object node:186 {
	phases AN;
	nominal_voltage 7200;
	name R1-12-47-2_node_137;
	voltage_A 7200+0.0j;
};

object node:187 {
	phases AN;
	nominal_voltage 7200;
	name R1-12-47-2_node_138;
	voltage_A 7200+0.0j;
};

object node:188 {
	phases AN;
	nominal_voltage 7200;
	name R1-12-47-2_node_139;
	voltage_A 7200+0.0j;
};

object node:189 {
	phases AN;
	nominal_voltage 7200;
	name R1-12-47-2_node_140;
	voltage_A 7200+0.0j;
};

object node:190 {
	phases AN;
	nominal_voltage 7200;
	name R1-12-47-2_node_141;
	voltage_A 7200+0.0j;
};

object node:191 {
	phases AN;
	nominal_voltage 7200;
	name R1-12-47-2_node_142;
	voltage_A 7200+0.0j;
};

object node:192 {
	phases AN;
	nominal_voltage 7200;
	name R1-12-47-2_node_143;
	voltage_A 7200+0.0j;
};

object node:193 {
	phases AN;
	nominal_voltage 7200;
	name R1-12-47-2_node_144;
	voltage_A 7200+0.0j;
};

object node:194 {
	phases AN;
	nominal_voltage 7200;
	name R1-12-47-2_node_145;
	voltage_A 7200+0.0j;
};

object node:195 {
	phases AN;
	nominal_voltage 7200;
	name R1-12-47-2_node_146;
	voltage_A 7200+0.0j;
};

object node:196 {
	phases AN;
	nominal_voltage 7200;
	name R1-12-47-2_node_147;
	voltage_A 7200+0.0j;
};

object node:197 {
	phases AN;
	nominal_voltage 7200;
	name R1-12-47-2_node_148;
	voltage_A 7200+0.0j;
};

object node:198 {
	phases AN;
	nominal_voltage 7200;
	name R1-12-47-2_node_149;
	voltage_A 7200+0.0j;
};

object node:199 {
	phases AN;
	nominal_voltage 7200;
	name R1-12-47-2_node_150;
	voltage_A 7200+0.0j;
};

object node:200 {
	phases AN;
	nominal_voltage 7200;
	name R1-12-47-2_node_151;
	voltage_A 7200+0.0j;
};

object node:201 {
	phases AN;
	nominal_voltage 7200;
	name R1-12-47-2_node_152;
	voltage_A 7200+0.0j;
};

object node:202 {
	phases AN;
	nominal_voltage 7200;
	name R1-12-47-2_node_153;
	voltage_A 7200+0.0j;
};

object node:203 {
	phases AN;
	nominal_voltage 7200;
	name R1-12-47-2_node_154;
	voltage_A 7200+0.0j;
};

object node:204 {
	phases AN;
	nominal_voltage 7200;
	name R1-12-47-2_node_155;
	voltage_A 7200+0.0j;
};

object node:205 {
	phases AN;
	nominal_voltage 7200;
	name R1-12-47-2_node_156;
	voltage_A 7200+0.0j;
};

object node:206 {
	phases AN;
	nominal_voltage 7200;
	name R1-12-47-2_node_157;
	voltage_A 7200+0.0j;
};

object node:207 {
	phases AN;
	nominal_voltage 7200;
	name R1-12-47-2_node_158;
	voltage_A 7200+0.0j;
};

object node:208 {
	phases AN;
	nominal_voltage 7200;
	name R1-12-47-2_node_159;
	voltage_A 7200+0.0j;
};

object node:209 {
	phases AN;
	nominal_voltage 7200;
	name R1-12-47-2_node_160;
	voltage_A 7200+0.0j;
};

object node:210 {
	phases AN;
	nominal_voltage 7200;
	name R1-12-47-2_node_161;
	voltage_A 7200+0.0j;
};

object node:211 {
	phases AN;
	nominal_voltage 7200;
	name R1-12-47-2_node_162;
	voltage_A 7200+0.0j;
};

object node:212 {
	phases AN;
	nominal_voltage 7200;
	name R1-12-47-2_node_163;
	voltage_A 7200+0.0j;
};

object node:213 {
	voltage_C -3600+6235j;
	phases CN;
	nominal_voltage 7200;
	name R1-12-47-2_node_164;
};

object node:214 {
	voltage_C -3600+6235j;
	phases CN;
	nominal_voltage 7200;
	name R1-12-47-2_node_165;
};

object node:215 {
	voltage_C -3600+6235j;
	phases CN;
	nominal_voltage 7200;
	name R1-12-47-2_node_166;
};

object node:216 {
	voltage_C -3600+6235j;
	phases CN;
	nominal_voltage 7200;
	name R1-12-47-2_node_167;
};

object node:217 {
	voltage_C -3600+6235j;
	phases CN;
	nominal_voltage 7200;
	name R1-12-47-2_node_168;
};

object node:218 {
	voltage_C -3600+6235j;
	phases CN;
	nominal_voltage 7200;
	name R1-12-47-2_node_169;
};

object node:219 {
	voltage_C -3600+6235j;
	phases CN;
	nominal_voltage 7200;
	name R1-12-47-2_node_170;
};

object node:220 {
	voltage_C -3600+6235j;
	phases CN;
	nominal_voltage 7200;
	name R1-12-47-2_node_171;
};

object node:221 {
	voltage_C -3600+6235j;
	phases CN;
	nominal_voltage 7200;
	name R1-12-47-2_node_172;
};

object node:222 {
	voltage_C -3600+6235j;
	phases CN;
	nominal_voltage 7200;
	name R1-12-47-2_node_173;
};

object node:223 {
	voltage_C -3600+6235j;
	phases CN;
	nominal_voltage 7200;
	name R1-12-47-2_node_174;
};

object node:224 {
	voltage_C -3600+6235j;
	phases CN;
	nominal_voltage 7200;
	name R1-12-47-2_node_175;
};

object node:225 {
	voltage_C -3600+6235j;
	phases CN;
	nominal_voltage 7200;
	name R1-12-47-2_node_176;
};

object node:226 {
	voltage_C -3600+6235j;
	phases CN;
	nominal_voltage 7200;
	name R1-12-47-2_node_177;
};

object node:227 {
	voltage_C -3600+6235j;
	phases CN;
	nominal_voltage 7200;
	name R1-12-47-2_node_178;
};

object node:228 {
	voltage_C -3600+6235j;
	phases CN;
	nominal_voltage 7200;
	name R1-12-47-2_node_179;
};

object node:229 {
	voltage_C -3600+6235j;
	phases CN;
	nominal_voltage 7200;
	name R1-12-47-2_node_180;
};

object node:230 {
	voltage_C -3600+6235j;
	phases CN;
	nominal_voltage 7200;
	name R1-12-47-2_node_181;
};

object node:231 {
	voltage_C -3600+6235j;
	phases CN;
	nominal_voltage 7200;
	name R1-12-47-2_node_182;
};

object node:232 {
	phases ABCN;
	name R1-12-47-2_node_183;
	voltage_B -3600-6235j;
	voltage_C -3600+6235j;
	voltage_A 7200+0.0j;
	nominal_voltage 7200;
};

object node:233 {
	phases BCN;
	name R1-12-47-2_node_184;
	voltage_B -3600-6235j;
	voltage_C -3600+6235j;
	nominal_voltage 7200;
};

object node:234 {
	phases BCN;
	name R1-12-47-2_node_185;
	voltage_B -3600-6235j;
	voltage_C -3600+6235j;
	nominal_voltage 7200;
};

object node:235 {
	voltage_C -3600+6235j;
	phases CN;
	nominal_voltage 7200;
	name R1-12-47-2_node_186;
};

object node:236 {
	phases BCN;
	name R1-12-47-2_node_187;
	voltage_B -3600-6235j;
	voltage_C -3600+6235j;
	nominal_voltage 7200;
};

object node:237 {
	voltage_C -3600+6235j;
	phases CN;
	nominal_voltage 7200;
	name R1-12-47-2_node_188;
};

object node:238 {
	phases BCN;
	name R1-12-47-2_node_189;
	voltage_B -3600-6235j;
	voltage_C -3600+6235j;
	nominal_voltage 7200;
};

object node:239 {
	voltage_C -3600+6235j;
	phases CN;
	nominal_voltage 7200;
	name R1-12-47-2_node_190;
};

object node:240 {
	voltage_C -3600+6235j;
	phases CN;
	nominal_voltage 7200;
	name R1-12-47-2_node_191;
};

object node:241 {
	voltage_C -3600+6235j;
	phases CN;
	nominal_voltage 7200;
	name R1-12-47-2_node_192;
};

object node:242 {
	voltage_C -3600+6235j;
	phases CN;
	nominal_voltage 7200;
	name R1-12-47-2_node_193;
};

object node:243 {
	voltage_C -3600+6235j;
	phases CN;
	nominal_voltage 7200;
	name R1-12-47-2_node_194;
};

object node:244 {
	voltage_C -3600+6235j;
	phases CN;
	nominal_voltage 7200;
	name R1-12-47-2_node_195;
};

object node:245 {
	voltage_C -3600+6235j;
	phases CN;
	nominal_voltage 7200;
	name R1-12-47-2_node_196;
};

object node:246 {
	voltage_C -3600+6235j;
	phases CN;
	nominal_voltage 7200;
	name R1-12-47-2_node_197;
};

object node:247 {
	voltage_C -3600+6235j;
	phases CN;
	nominal_voltage 7200;
	name R1-12-47-2_node_198;
};

object node:248 {
	voltage_C -3600+6235j;
	phases CN;
	nominal_voltage 7200;
	name R1-12-47-2_node_199;
};

object node:249 {
	voltage_C -3600+6235j;
	phases CN;
	nominal_voltage 7200;
	name R1-12-47-2_node_200;
};

object node:250 {
	voltage_C -3600+6235j;
	phases CN;
	nominal_voltage 7200;
	name R1-12-47-2_node_201;
};

object node:251 {
	voltage_C -3600+6235j;
	phases CN;
	nominal_voltage 7200;
	name R1-12-47-2_node_202;
};

object node:252 {
	voltage_C -3600+6235j;
	phases CN;
	nominal_voltage 7200;
	name R1-12-47-2_node_203;
};

object node:253 {
	voltage_C -3600+6235j;
	phases CN;
	nominal_voltage 7200;
	name R1-12-47-2_node_204;
};

object node:254 {
	voltage_C -3600+6235j;
	phases CN;
	nominal_voltage 7200;
	name R1-12-47-2_node_205;
};

object node:255 {
	voltage_C -3600+6235j;
	phases CN;
	nominal_voltage 7200;
	name R1-12-47-2_node_206;
};

object node:256 {
	voltage_C -3600+6235j;
	phases CN;
	nominal_voltage 7200;
	name R1-12-47-2_node_207;
};

object node:257 {
	phases BCN;
	name R1-12-47-2_node_208;
	voltage_B -3600-6235j;
	voltage_C -3600+6235j;
	nominal_voltage 7200;
};

object node:258 {
	voltage_B -3600-6235j;
	phases BN;
	nominal_voltage 7200;
	name R1-12-47-2_node_209;
};

object node:259 {
	voltage_C -3600+6235j;
	phases CN;
	nominal_voltage 7200;
	name R1-12-47-2_node_210;
};

object node:260 {
	voltage_C -3600+6235j;
	phases CN;
	nominal_voltage 7200;
	name R1-12-47-2_node_211;
};

object node:261 {
	voltage_C -3600+6235j;
	phases CN;
	nominal_voltage 7200;
	name R1-12-47-2_node_212;
};

object node:262 {
	voltage_C -3600+6235j;
	phases CN;
	nominal_voltage 7200;
	name R1-12-47-2_node_213;
};

object node:263 {
	voltage_C -3600+6235j;
	phases CN;
	nominal_voltage 7200;
	name R1-12-47-2_node_214;
};

object node:264 {
	phases BCN;
	name R1-12-47-2_node_215;
	voltage_B -3600-6235j;
	voltage_C -3600+6235j;
	nominal_voltage 7200;
};

object node:265 {
	phases BCN;
	name R1-12-47-2_node_216;
	voltage_B -3600-6235j;
	voltage_C -3600+6235j;
	nominal_voltage 7200;
};

object node:266 {
	phases BCN;
	name R1-12-47-2_node_217;
	voltage_B -3600-6235j;
	voltage_C -3600+6235j;
	nominal_voltage 7200;
};

object node:267 {
	phases BCN;
	name R1-12-47-2_node_218;
	voltage_B -3600-6235j;
	voltage_C -3600+6235j;
	nominal_voltage 7200;
};

object node:268 {
	voltage_B -3600-6235j;
	phases BN;
	nominal_voltage 7200;
	name R1-12-47-2_node_219;
};

object node:269 {
	phases BCN;
	name R1-12-47-2_node_220;
	voltage_B -3600-6235j;
	voltage_C -3600+6235j;
	nominal_voltage 7200;
};

object node:270 {
	voltage_B -3600-6235j;
	phases BN;
	nominal_voltage 7200;
	name R1-12-47-2_node_221;
};

object node:271 {
	voltage_B -3600-6235j;
	phases BN;
	nominal_voltage 7200;
	name R1-12-47-2_node_222;
};

object node:272 {
	voltage_B -3600-6235j;
	phases BN;
	nominal_voltage 7200;
	name R1-12-47-2_node_223;
};

object node:273 {
	voltage_B -3600-6235j;
	phases BN;
	nominal_voltage 7200;
	name R1-12-47-2_node_224;
};

object node:274 {
	voltage_B -3600-6235j;
	phases BN;
	nominal_voltage 7200;
	name R1-12-47-2_node_225;
};

object node:275 {
	voltage_B -3600-6235j;
	phases BN;
	nominal_voltage 7200;
	name R1-12-47-2_node_226;
};

object node:276 {
	voltage_B -3600-6235j;
	phases BN;
	nominal_voltage 7200;
	name R1-12-47-2_node_227;
};

object node:277 {
	voltage_B -3600-6235j;
	phases BN;
	nominal_voltage 7200;
	name R1-12-47-2_node_228;
};

object node:278 {
	voltage_B -3600-6235j;
	phases BN;
	nominal_voltage 7200;
	name R1-12-47-2_node_229;
};

object node:279 {
	voltage_B -3600-6235j;
	phases BN;
	nominal_voltage 7200;
	name R1-12-47-2_node_230;
};

object node:280 {
	phases BCN;
	name R1-12-47-2_node_231;
	voltage_B -3600-6235j;
	voltage_C -3600+6235j;
	nominal_voltage 7200;
};

object node:281 {
	voltage_B -3600-6235j;
	phases BN;
	nominal_voltage 7200;
	name R1-12-47-2_node_232;
};

object node:282 {
	voltage_B -3600-6235j;
	phases BN;
	nominal_voltage 7200;
	name R1-12-47-2_node_233;
};

object node:283 {
	phases BCN;
	name R1-12-47-2_node_234;
	voltage_B -3600-6235j;
	voltage_C -3600+6235j;
	nominal_voltage 7200;
};

object node:284 {
	voltage_B -3600-6235j;
	phases BN;
	nominal_voltage 7200;
	name R1-12-47-2_node_235;
};

object node:285 {
	voltage_B -3600-6235j;
	phases BN;
	nominal_voltage 7200;
	name R1-12-47-2_node_236;
};

object node:286 {
	phases BCN;
	name R1-12-47-2_node_237;
	voltage_B -3600-6235j;
	voltage_C -3600+6235j;
	nominal_voltage 7200;
};

object node:287 {
	voltage_C -3600+6235j;
	phases CN;
	nominal_voltage 7200;
	name R1-12-47-2_node_238;
};

object node:288 {
	voltage_C -3600+6235j;
	phases CN;
	nominal_voltage 7200;
	name R1-12-47-2_node_239;
};

object node:289 {
	voltage_C -3600+6235j;
	phases CN;
	nominal_voltage 7200;
	name R1-12-47-2_node_240;
};

object node:290 {
	phases BCN;
	name R1-12-47-2_node_241;
	voltage_B -3600-6235j;
	voltage_C -3600+6235j;
	nominal_voltage 7200;
};

object node:291 {
	voltage_C -3600+6235j;
	phases CN;
	nominal_voltage 7200;
	name R1-12-47-2_node_242;
};

object node:292 {
	voltage_C -3600+6235j;
	phases CN;
	nominal_voltage 7200;
	name R1-12-47-2_node_243;
};

object node:293 {
	voltage_C -3600+6235j;
	phases CN;
	nominal_voltage 7200;
	name R1-12-47-2_node_244;
};

object node:294 {
	voltage_C -3600+6235j;
	phases CN;
	nominal_voltage 7200;
	name R1-12-47-2_node_245;
};

object node:295 {
	voltage_C -3600+6235j;
	phases CN;
	nominal_voltage 7200;
	name R1-12-47-2_node_246;
};

object node:296 {
	voltage_C -3600+6235j;
	phases CN;
	nominal_voltage 7200;
	name R1-12-47-2_node_247;
};

object node:297 {
	voltage_C -3600+6235j;
	phases CN;
	nominal_voltage 7200;
	name R1-12-47-2_node_248;
};

object node:298 {
	voltage_C -3600+6235j;
	phases CN;
	nominal_voltage 7200;
	name R1-12-47-2_node_249;
};

object node:299 {
	phases BCN;
	name R1-12-47-2_node_250;
	voltage_B -3600-6235j;
	voltage_C -3600+6235j;
	nominal_voltage 7200;
};

object node:300 {
	voltage_C -3600+6235j;
	phases CN;
	nominal_voltage 7200;
	name R1-12-47-2_node_251;
};

object node:301 {
	voltage_C -3600+6235j;
	phases CN;
	nominal_voltage 7200;
	name R1-12-47-2_node_252;
};

object node:302 {
	phases BCN;
	name R1-12-47-2_node_253;
	voltage_B -3600-6235j;
	voltage_C -3600+6235j;
	nominal_voltage 7200;
};

object node:303 {
	voltage_B -3600-6235j;
	phases BN;
	nominal_voltage 7200;
	name R1-12-47-2_node_254;
};

object node:304 {
	voltage_B -3600-6235j;
	phases BN;
	nominal_voltage 7200;
	name R1-12-47-2_node_255;
};

object node:305 {
	voltage_B -3600-6235j;
	phases BN;
	nominal_voltage 7200;
	name R1-12-47-2_node_256;
};

object node:306 {
	voltage_B -3600-6235j;
	phases BN;
	nominal_voltage 7200;
	name R1-12-47-2_node_257;
};

object node:307 {
	phases BCN;
	name R1-12-47-2_node_258;
	voltage_B -3600-6235j;
	voltage_C -3600+6235j;
	nominal_voltage 7200;
};

object node:308 {
	voltage_B -3600-6235j;
	phases BN;
	nominal_voltage 7200;
	name R1-12-47-2_node_259;
};

object node:309 {
	voltage_B -3600-6235j;
	phases BN;
	nominal_voltage 7200;
	name R1-12-47-2_node_260;
};

object node:310 {
	voltage_B -3600-6235j;
	phases BN;
	nominal_voltage 7200;
	name R1-12-47-2_node_261;
};

object node:311 {
	voltage_B -3600-6235j;
	phases BN;
	nominal_voltage 7200;
	name R1-12-47-2_node_262;
};

object node:312 {
	phases BCN;
	name R1-12-47-2_node_263;
	voltage_B -3600-6235j;
	voltage_C -3600+6235j;
	nominal_voltage 7200;
};

object node:313 {
	phases BCN;
	name R1-12-47-2_node_264;
	voltage_B -3600-6235j;
	voltage_C -3600+6235j;
	nominal_voltage 7200;
};

object node:314 {
	phases BCN;
	name R1-12-47-2_node_265;
	voltage_B -3600-6235j;
	voltage_C -3600+6235j;
	nominal_voltage 7200;
};

object node:315 {
	voltage_C -3600+6235j;
	phases CN;
	nominal_voltage 7200;
	name R1-12-47-2_node_266;
};

object node:316 {
	phases BCN;
	name R1-12-47-2_node_267;
	voltage_B -3600-6235j;
	voltage_C -3600+6235j;
	nominal_voltage 7200;
};

object node:317 {
	voltage_C -3600+6235j;
	phases CN;
	nominal_voltage 7200;
	name R1-12-47-2_node_268;
};

object node:318 {
	phases BCN;
	name R1-12-47-2_node_269;
	voltage_B -3600-6235j;
	voltage_C -3600+6235j;
	nominal_voltage 7200;
};

object node:319 {
	voltage_C -3600+6235j;
	phases CN;
	nominal_voltage 7200;
	name R1-12-47-2_node_270;
};

object node:320 {
	voltage_B -3600-6235j;
	phases BN;
	nominal_voltage 7200;
	name R1-12-47-2_node_271;
};

object node:321 {
	voltage_B -3600-6235j;
	phases BN;
	nominal_voltage 7200;
	name R1-12-47-2_node_272;
};

object node:322 {
	voltage_B -3600-6235j;
	phases BN;
	nominal_voltage 7200;
	name R1-12-47-2_node_273;
};

object node:323 {
	voltage_B -3600-6235j;
	phases BN;
	nominal_voltage 7200;
	name R1-12-47-2_node_274;
};

object node:324 {
	voltage_B -3600-6235j;
	phases BN;
	nominal_voltage 7200;
	name R1-12-47-2_node_275;
};

object node:325 {
	voltage_B -3600-6235j;
	phases BN;
	nominal_voltage 7200;
	name R1-12-47-2_node_276;
};

object node:326 {
	voltage_B -3600-6235j;
	phases BN;
	nominal_voltage 7200;
	name R1-12-47-2_node_277;
};

object node:327 {
	voltage_B -3600-6235j;
	phases BN;
	nominal_voltage 7200;
	name R1-12-47-2_node_278;
};

object node:328 {
	voltage_B -3600-6235j;
	phases BN;
	nominal_voltage 7200;
	name R1-12-47-2_node_279;
};

object node:329 {
	voltage_B -3600-6235j;
	phases BN;
	nominal_voltage 7200;
	name R1-12-47-2_node_280;
};

object node:330 {
	voltage_B -3600-6235j;
	phases BN;
	nominal_voltage 7200;
	name R1-12-47-2_node_281;
};

object node:331 {
	voltage_B -3600-6235j;
	phases BN;
	nominal_voltage 7200;
	name R1-12-47-2_node_282;
};

object node:332 {
	voltage_B -3600-6235j;
	phases BN;
	nominal_voltage 7200;
	name R1-12-47-2_node_283;
};

object node:333 {
	voltage_B -3600-6235j;
	phases BN;
	nominal_voltage 7200;
	name R1-12-47-2_node_284;
};

object node:334 {
	voltage_B -3600-6235j;
	phases BN;
	nominal_voltage 7200;
	name R1-12-47-2_node_285;
};

object node:335 {
	voltage_B -3600-6235j;
	phases BN;
	nominal_voltage 7200;
	name R1-12-47-2_node_286;
};

object node:336 {
	voltage_B -3600-6235j;
	phases BN;
	nominal_voltage 7200;
	name R1-12-47-2_node_287;
};

object node:337 {
	voltage_B -3600-6235j;
	phases BN;
	nominal_voltage 7200;
	name R1-12-47-2_node_288;
};

object node:338 {
	voltage_B -3600-6235j;
	phases BN;
	nominal_voltage 7200;
	name R1-12-47-2_node_289;
};

object node:339 {
	voltage_B -3600-6235j;
	phases BN;
	nominal_voltage 7200;
	name R1-12-47-2_node_290;
};

object node:340 {
	voltage_B -3600-6235j;
	phases BN;
	nominal_voltage 7200;
	name R1-12-47-2_node_291;
};

object node:341 {
	voltage_B -3600-6235j;
	phases BN;
	nominal_voltage 7200;
	name R1-12-47-2_node_292;
};

object node:342 {
	phases ABCN;
	name R1-12-47-2_node_293;
	voltage_B -3600-6235j;
	voltage_C -3600+6235j;
	voltage_A 7200+0.0j;
	nominal_voltage 7200;
};

object node:343 {
	phases ABCN;
	name R1-12-47-2_node_294;
	parent R1-12-47-2_meter_14;
	voltage_B -3600-6235j;
	voltage_C -3600+6235j;
	voltage_A 7200+0.0j;
	nominal_voltage 7200;
};

object node:344 {
	voltage_B -3600-6235j;
	phases BN;
	nominal_voltage 7200;
	name R1-12-47-2_node_295;
};

object node:345 {
	voltage_B -3600-6235j;
	phases BN;
	nominal_voltage 7200;
	name R1-12-47-2_node_296;
};

object node:346 {
	voltage_B -3600-6235j;
	phases BN;
	nominal_voltage 7200;
	name R1-12-47-2_node_297;
};

object node:347 {
	voltage_B -3600-6235j;
	phases BN;
	nominal_voltage 7200;
	name R1-12-47-2_node_298;
};

object node:348 {
	voltage_B -3600-6235j;
	phases BN;
	nominal_voltage 7200;
	name R1-12-47-2_node_299;
};

object node:349 {
	voltage_B -3600-6235j;
	phases BN;
	nominal_voltage 7200;
	name R1-12-47-2_node_300;
};

object node:350 {
	phases AN;
...